168

C 0.273968 -1.128677 5.170400
C -0.928832 -0.423549 5.170405
C -0.938117 0.970649 5.170471
C 0.273877 1.659638 5.170405
C 1.485992 0.970615 5.170444
C 1.476699 -0.423517 5.170405
H 0.273929 -2.215480 5.170363
H -1.879361 1.514052 5.170518
H 2.427160 1.514097 5.170437
C -4.067634 -0.333671 -0.638704
C -3.660532 -1.498196 0.010976
C -2.855645 -2.433053 -0.638696
C -2.457804 -2.192603 -1.953055
C -2.855643 -1.033457 -2.617948
C -3.660514 -0.109383 -1.953147
H -4.695069 0.390859 -0.126335
H -2.541950 -3.338771 -0.126352
H -2.541858 -0.852391 -3.642606
C 2.882944 -3.048565 -0.056436
C 3.687901 -2.113742 0.593244
C 4.095068 -0.949261 -0.056428
C 3.687911 -0.724945 -1.370787
C 2.882981 -1.649057 -2.035679
C 2.485145 -2.808133 -1.370879
H 2.569200 -3.954205 0.455933
H 4.722595 -0.224734 0.455916
H 2.569281 -1.467844 -3.060338
C 1.485557 4.533907 -0.637544
C 0.273498 4.763609 0.012135
C -0.938555 4.533986 -0.637537
C -0.929240 4.069220 -1.951896
C 0.273530 3.834186 -2.616788
C 1.476237 4.069187 -1.951988
H 2.426737 4.715017 -0.125176
H -1.879778 4.715177 -0.125192
H 0.273444 3.471907 -3.641446
C -2.124711 -1.162061 4.452082
N -3.383698 -1.027110 4.669773
C -4.078226 -2.303677 4.930489
C -5.032001 -2.086138 6.111007
C -5.880717 -3.325289 6.382854
C -6.639019 -3.773804 5.136930
C -5.701669 -3.981675 3.950400
C -4.863377 -2.729470 3.667854
N -3.913456 -3.056614 2.585797
C -3.813562 -2.137119 1.694201
H -1.582507 -2.122963 4.454117
H -3.370839 -3.099587 5.205159
H -4.458721 -1.829151 7.010093
H -5.690182 -1.230950 5.908489
H -6.590812 -3.115727 7.190670
H -5.234203 -4.140815 6.729440
H -7.177597 -4.704217 5.348654
H -7.392915 -3.020202 4.878006
H -5.042651 -4.836306 4.152234
H -6.287301 -4.245758 3.061575
H -5.547159 -1.919963 3.373783
H -4.370048 -1.184369 1.703648
C 2.719866 -1.527903 4.848315
N 3.232491 -2.685692 5.066007
C 4.685294 -2.648884 5.326722
C 4.973790 -3.583644 6.507241
C 6.471285 -3.699075 6.779087
C 7.238862 -4.131526 5.533163
C 6.950205 -3.215824 4.346632
C 5.446617 -3.115947 4.064087
N 5.254969 -2.129722 2.982029
C 4.408716 -2.502961 2.090434
H 3.280927 -0.577888 4.850348
H 5.020878 -1.638312 5.601390
H 4.464593 -3.215662 7.406327
H 4.562269 -4.581240 6.304724
H 6.644849 -4.418814 7.586904
H 6.854292 -2.731412 7.125671
H 8.313913 -4.132739 5.744886
H 6.963173 -5.161221 5.274241
H 7.360826 -2.217781 4.548464
H 7.471724 -3.590954 3.457807
H 5.087457 -4.112875 3.770018
H 3.861856 -3.461269 2.099883
C 0.085669 3.221644 4.423052
N 0.832032 4.244484 4.640744
C 0.073754 5.484245 4.901459
C 0.739032 6.201470 6.081979
C 0.090252 7.556054 6.353824
C 0.080977 8.437021 5.107901
C -0.567716 7.729186 3.921370
C 0.097581 6.377102 3.638824
N -0.660692 5.718017 2.556767
C 0.085669 5.171760 1.665171
H -1.017598 3.232530 4.425086
H -0.969219 5.269584 5.176128
H 0.674950 5.576502 6.981064
H 1.808737 6.343880 5.879461
H 0.626782 8.066234 7.161641
H -0.939272 7.403917 6.700409
H -0.455498 9.368649 5.319624
H 1.110563 8.713114 4.848978
H -1.637358 7.585772 4.123202
H -0.503604 8.368399 3.032545
H 1.140526 6.564523 3.344755
H 1.189018 5.177318 1.674620
C -1.506170 -3.699940 -2.492250
N -1.093377 -4.053539 -3.656389
C -0.590474 -5.440740 -3.708595
C -1.140274 -6.091290 -4.983404
C -0.580166 -7.497068 -5.182854
C 0.945753 -7.502400 -5.175264
C 1.505883 -6.845701 -3.916420
C 0.955954 -5.427009 -3.728069
N 1.458928 -4.915325 -2.437559
C 1.871531 -3.699940 -2.492250
H -1.501545 -4.345130 -1.597247
H -0.938675 -6.029275 -2.847377
H -2.235200 -6.135476 -4.936163
H -0.892699 -5.473165 -5.856440
H -0.945192 -7.908228 -6.130703
H -0.950987 -8.153423 -4.386063
H 1.310758 -8.533026 -5.246986
H 1.316565 -6.969971 -6.059761
H 1.258288 -7.462797 -3.042735
H 2.600656 -6.815832 -3.973821
H 1.304269 -4.811184 -4.569956
H 1.867025 -3.071078 -3.398899
C -4.142070 1.184395 -2.868200
N -4.988265 2.149598 -2.813531
C -5.179889 2.840935 -4.103996
C -6.683463 3.074170 -4.292405
C -6.972071 3.887555 -5.551303
C -6.204454 5.206350 -5.558860
C -4.706975 4.988562 -5.359331
C -4.418611 4.187072 -4.084559
N -2.965717 3.929028 -4.032308
C -2.453220 4.109570 -2.868200
H -3.595241 0.874023 -3.774825
H -4.820702 2.231491 -4.945944
H -7.205110 2.111031 -4.349811
H -7.094070 3.597108 -3.418621
H -8.047192 4.086780 -5.623000
H -6.696377 3.300195 -6.435717
H -6.378028 5.728033 -6.506637
H -6.587538 5.855701 -4.762049
H -4.295551 4.465128 -6.232363
H -4.197833 5.958744 -5.312037
H -4.754080 4.782954 -3.223325
H -3.014213 4.428256 -1.973088
C 4.224772 0.473646 -2.671627
N 4.324601 1.007935 -3.835766
C 5.274501 2.137063 -3.887972
C 6.112793 1.986196 -5.162781
C 7.050179 3.174154 -5.362230
C 6.291837 4.498304 -5.354641
C 5.443054 4.655041 -4.095797
C 4.489396 3.469443 -3.907446
N 3.794777 3.649189 -2.616936
C 2.535921 3.398821 -2.671627
H 4.781211 0.800247 -1.776624
H 5.958288 2.129779 -3.026754
H 6.698523 1.060056 -5.115540
H 5.453695 1.891540 -6.035816
H 7.588768 3.063611 -6.310080
H 7.804010 3.181191 -4.565440
H 7.001884 5.329720 -5.426362
H 5.645334 4.553222 -6.239138
H 6.101273 4.749165 -3.222112
H 4.869800 5.588207 -4.153198
H 3.781918 3.463180 -4.749333
H 1.993564 3.080488 -3.578276
