
     RDKit          3D

  0  0  0  0  0  0  0  0  0  0999 V3000
M  V30 BEGIN CTAB
M  V30 COUNTS 280 318 0 0 0
M  V30 BEGIN ATOM
M  V30 1 Fe -0.3197 0.2207 8.3638 0 CHG=2
M  V30 2 C -3.8490 2.0794 10.5480 0
M  V30 3 C -2.6416 2.5093 11.0680 0
M  V30 4 C -1.4915 2.0325 10.4740 0
M  V30 5 N -1.5521 1.1863 9.4348 0
M  V30 6 C -2.6962 0.7457 8.9013 0
M  V30 7 C -3.8704 1.2115 9.4818 0
M  V30 8 C -2.7092 -0.1712 7.7748 0
M  V30 9 N -1.5797 -0.5517 7.2995 0
M  V30 10 H -4.7941 2.4214 10.9748 0
M  V30 11 H -2.6404 3.1898 11.9041 0
M  V30 12 H -0.5287 2.3664 10.8776 0
M  V30 13 H -4.8154 0.8628 9.0599 0
M  V30 14 H -3.6491 -0.5041 7.3724 0
M  V30 15 C -0.0101 -3.5907 10.9123 0
M  V30 16 C -0.9459 -2.7105 11.4248 0
M  V30 17 C -1.1535 -1.5349 10.7333 0
M  V30 18 N -0.4707 -1.2655 9.6106 0
M  V30 19 C 0.4417 -2.0870 9.0808 0
M  V30 20 C 0.6700 -3.2792 9.7586 0
M  V30 21 C 1.1554 -1.7496 7.8614 0
M  V30 22 N 0.8836 -0.6286 7.2995 0
M  V30 23 H 0.1990 -4.5377 11.4141 0
M  V30 24 H -1.4713 -2.9681 12.3301 0
M  V30 25 H -1.8928 -0.8296 11.1300 0
M  V30 26 H 1.4117 -3.9635 9.3414 0
M  V30 27 H 1.8824 -2.4356 7.4651 0
M  V30 28 C 2.8463 2.6331 10.5978 0
M  V30 29 C 2.5927 1.4367 11.2437 0
M  V30 30 C 1.6305 0.6138 10.6958 0
M  V30 31 N 0.9730 0.9684 9.5816 0
M  V30 32 C 1.1863 2.1141 8.9260 0
M  V30 33 C 2.1515 2.9617 9.4576 0
M  V30 34 C 0.4475 2.4530 7.7221 0
M  V30 35 N -0.4259 1.6135 7.2995 0
M  V30 36 H 3.5963 3.3271 10.9825 0
M  V30 37 H 3.1452 1.1924 12.1365 0
M  V30 38 H 1.4210 -0.3372 11.1991 0
M  V30 39 H 2.3402 3.9025 8.9362 0
M  V30 40 H 0.6465 3.3837 7.2219 0
M  V30 41 Fe -7.1783 -4.5188 -3.0212 0 CHG=2
M  V30 42 C -7.8886 -8.8252 -1.7437 0
M  V30 43 C -8.0650 -8.6598 -3.1055 0
M  V30 44 C -7.8553 -7.3979 -3.6218 0
M  V30 45 N -7.4953 -6.3789 -2.8271 0
M  V30 46 C -7.3141 -6.4941 -1.5074 0
M  V30 47 C -7.5191 -7.7563 -0.9618 0
M  V30 48 C -6.9237 -5.3594 -0.6891 0
M  V30 49 N -6.7553 -4.2296 -1.2735 0
M  V30 50 H -8.0396 -9.8000 -1.2756 0
M  V30 51 H -8.3548 -9.5070 -3.7060 0
M  V30 52 H -7.9920 -7.2549 -4.6999 0
M  V30 53 H -7.3760 -7.8705 0.1148 0
M  V30 54 H -6.7873 -5.4904 0.3694 0
M  V30 55 C -11.4597 -3.0005 -2.3267 0
M  V30 56 C -11.3699 -4.3692 -2.1484 0
M  V30 57 C -10.1267 -4.9467 -2.3026 0
M  V30 58 N -9.0544 -4.2029 -2.6129 0
M  V30 59 C -9.0961 -2.8787 -2.7940 0
M  V30 60 C -10.3378 -2.2717 -2.6443 0
M  V30 61 C -7.9057 -2.1168 -3.1293 0
M  V30 62 N -6.7996 -2.7561 -3.2485 0
M  V30 63 H -12.4161 -2.4850 -2.2183 0
M  V30 64 H -12.2579 -4.9275 -1.8997 0
M  V30 65 H -10.0433 -6.0308 -2.1637 0
M  V30 66 H -10.3923 -1.1905 -2.7882 0
M  V30 67 H -7.9781 -1.0529 -3.2674 0
M  V30 68 C -7.6096 -5.3523 -7.4881 0
M  V30 69 C -8.8277 -5.0056 -6.9323 0
M  V30 70 C -8.8555 -4.7542 -5.5761 0
M  V30 71 N -7.7409 -4.8450 -4.8351 0
M  V30 72 C -6.5442 -5.1765 -5.3308 0
M  V30 73 C -6.4889 -5.4350 -6.6957 0
M  V30 74 C -5.3656 -5.2615 -4.4860 0
M  V30 75 N -5.5052 -5.0069 -3.2362 0
M  V30 76 H -7.5230 -5.5633 -8.5559 0
M  V30 77 H -9.6977 -4.9446 -7.5658 0
M  V30 78 H -9.8154 -4.4784 -5.1245 0
M  V30 79 H -5.5200 -5.7075 -7.1194 0
M  V30 80 H -4.4198 -5.5313 -4.9205 0
M  V30 81 Fe 6.7702 -3.9336 -3.2974 0 CHG=2
M  V30 82 C 10.8548 -2.3955 -2.0200 0
M  V30 83 C 10.7997 -2.6309 -3.3818 0
M  V30 84 C 9.6021 -3.0802 -3.8981 0
M  V30 85 N 8.5395 -3.2780 -3.1034 0
M  V30 86 C 8.5488 -3.0635 -1.7837 0
M  V30 87 C 9.7444 -2.6100 -1.2380 0
M  V30 88 C 7.3708 -3.2928 -0.9653 0
M  V30 89 N 6.3082 -3.7118 -1.5498 0
M  V30 90 H 11.7745 -2.0388 -1.5519 0
M  V30 91 H 11.6783 -2.4583 -3.9823 0
M  V30 92 H 9.5466 -3.2702 -4.9762 0
M  V30 93 H 9.7717 -2.4289 -0.1614 0
M  V30 94 H 7.4161 -3.1091 0.0931 0
M  V30 95 C 7.5960 -8.4005 -2.6030 0
M  V30 96 C 8.7364 -7.6384 -2.4247 0
M  V30 97 C 8.6150 -6.2729 -2.5789 0
M  V30 98 N 7.4346 -5.7162 -2.8892 0
M  V30 99 C 6.3087 -6.4144 -3.0703 0
M  V30 100 C 6.4039 -7.7933 -2.9206 0
M  V30 101 C 5.0537 -5.7645 -3.4056 0
M  V30 102 N 5.0543 -4.4869 -3.5248 0
M  V30 103 H 7.6277 -9.4865 -2.4946 0
M  V30 104 H 9.6639 -8.1282 -2.1760 0
M  V30 105 H 9.5121 -5.6587 -2.4400 0
M  V30 106 H 5.4948 -8.3811 -3.0645 0
M  V30 107 H 4.1685 -6.3592 -3.5437 0
M  V30 108 C 7.7076 -3.8903 -7.7643 0
M  V30 109 C 8.0164 -5.1186 -7.2086 0
M  V30 110 C 7.8126 -5.2683 -5.8524 0
M  V30 111 N 7.3340 -4.2577 -5.1113 0
M  V30 112 C 7.0227 -3.0556 -5.6070 0
M  V30 113 C 7.2189 -2.8784 -6.9719 0
M  V30 114 C 6.5070 -1.9924 -4.7623 0
M  V30 115 N 6.3563 -2.2406 -3.5125 0
M  V30 116 H 7.8471 -3.7099 -8.8322 0
M  V30 117 H 8.3987 -5.9025 -7.8421 0
M  V30 118 H 8.0537 -6.2375 -5.4008 0
M  V30 119 H 6.9704 -1.9031 -7.3957 0
M  V30 120 H 6.2677 -1.0383 -5.1968 0
M  V30 121 Fe -0.1125 7.7610 -3.1787 0 CHG=2
M  V30 122 C -3.4869 10.5294 -1.9012 0
M  V30 123 C -3.2554 10.5994 -3.2630 0
M  V30 124 C -2.2675 9.7869 -3.7793 0
M  V30 125 N -1.5649 8.9656 -2.9846 0
M  V30 126 C -1.7554 8.8663 -1.6649 0
M  V30 127 C -2.7459 9.6749 -1.1193 0
M  V30 128 C -0.9678 7.9608 -0.8466 0
M  V30 129 N -0.0736 7.2500 -1.4310 0
M  V30 130 H -4.2556 11.1476 -1.4331 0
M  V30 131 H -3.8442 11.2740 -3.8635 0
M  V30 132 H -2.0752 9.8338 -4.8574 0
M  V30 133 H -2.9164 9.6081 -0.0427 0
M  V30 134 H -1.1495 7.9082 0.2119 0
M  V30 135 C 3.3430 10.7097 -2.4842 0
M  V30 136 C 2.1128 11.3163 -2.3059 0
M  V30 137 C 0.9910 10.5283 -2.4601 0
M  V30 138 N 1.0991 9.2278 -2.7704 0
M  V30 139 C 2.2667 8.6018 -2.9515 0
M  V30 140 C 3.4133 9.3737 -2.8018 0
M  V30 141 C 2.3314 7.1900 -3.2868 0
M  V30 142 N 1.2246 6.5518 -3.4060 0
M  V30 143 H 4.2677 11.2802 -2.3758 0
M  V30 144 H 2.0733 12.3644 -2.0572 0
M  V30 145 H 0.0105 10.9982 -2.3212 0
M  V30 146 H 4.3769 8.8803 -2.9457 0
M  V30 147 H 3.2889 6.7207 -3.4249 0
M  V30 148 C -0.6188 8.5513 -7.6456 0
M  V30 149 C 0.2906 9.4328 -7.0898 0
M  V30 150 C 0.5221 9.3312 -5.7336 0
M  V30 151 N -0.1137 8.4113 -4.9926 0
M  V30 152 C -0.9992 7.5407 -5.4883 0
M  V30 153 C -1.2507 7.6221 -6.8532 0
M  V30 154 C -1.6621 6.5625 -4.6435 0
M  V30 155 N -1.3718 6.5561 -3.3937 0
M  V30 156 H -0.8447 8.5818 -8.7134 0
M  V30 157 H 0.7784 10.1558 -7.7233 0
M  V30 158 H 1.2410 10.0246 -5.2820 0
M  V30 159 H -1.9711 6.9192 -7.2769 0
M  V30 160 H -2.3687 5.8783 -5.0780 0
M  V30 161 C -4.0930 -2.8833 4.9368 0
M  V30 162 C -3.3955 -2.4810 6.0802 0
M  V30 163 C -2.4495 -1.4640 5.9889 0
M  V30 164 C -2.1957 -0.8465 4.7675 0
M  V30 165 C -2.8966 -1.2515 3.6273 0
M  V30 166 C -3.8566 -2.2763 3.6913 0
M  V30 167 C -4.5926 -2.7012 2.4894 0
M  V30 168 C -5.2956 -1.7707 1.7048 0
M  V30 169 C -5.9960 -2.1720 0.5629 0
M  V30 170 C -5.9996 -3.5136 0.1918 0
M  V30 171 C -5.3110 -4.4555 0.9507 0
M  V30 172 C -4.6131 -4.0495 2.0925 0
M  V30 173 H -4.8376 -3.6723 5.0274 0
M  V30 174 H -3.6010 -2.9653 7.0310 0
M  V30 175 H -1.4563 -0.0541 4.6886 0
M  V30 176 H -2.6780 -0.7664 2.6777 0
M  V30 177 H -5.3123 -0.7197 1.9877 0
M  V30 178 H -6.5339 -1.4317 -0.0233 0
M  V30 179 H -5.3070 -5.5039 0.6651 0
M  V30 180 H -4.0703 -4.7968 2.6686 0
M  V30 181 C 2.3310 -2.8797 4.2524 0
M  V30 182 C 1.6299 -2.4778 5.3937 0
M  V30 183 C 1.9528 -1.2741 6.0135 0
M  V30 184 C 2.9678 -0.4699 5.5031 0
M  V30 185 C 3.6652 -0.8754 4.3609 0
M  V30 186 C 3.3598 -2.0864 3.7159 0
M  V30 187 C 4.0959 -2.5113 2.5140 0
M  V30 188 C 4.1994 -1.6690 1.3935 0
M  V30 189 C 4.8976 -2.0706 0.2503 0
M  V30 190 C 5.5029 -3.3237 0.2164 0
M  V30 191 C 5.4161 -4.1770 1.3125 0
M  V30 192 C 4.7158 -3.7714 2.4530 0
M  V30 193 H 2.0584 -3.8183 3.7730 0
M  V30 194 H 0.8365 -3.1091 5.7849 0
M  V30 195 H 3.2273 0.4695 5.9838 0
M  V30 196 H 4.4638 -0.2405 3.9813 0
M  V30 197 H 3.7221 -0.6907 1.3996 0
M  V30 198 H 4.9588 -1.4006 -0.6030 0
M  V30 199 H 5.8888 -5.1553 1.2940 0
M  V30 200 H 4.6671 -4.4460 3.3059 0
M  V30 201 C -1.3056 3.9423 4.2616 0
M  V30 202 C -1.3081 3.1355 5.4039 0
M  V30 203 C -0.1016 2.6927 5.9384 0
M  V30 204 C 1.1049 3.0491 5.3427 0
M  V30 205 C 1.1024 3.8570 4.2014 0
M  V30 206 C -0.1016 4.3173 3.6408 0
M  V30 207 C -0.1016 5.1672 2.4388 0
M  V30 208 C 0.6474 6.3558 2.3932 0
M  V30 209 C 0.6486 7.1651 1.2528 0
M  V30 210 C -0.1016 6.7919 0.1412 0
M  V30 211 C -0.8516 5.6195 0.1598 0
M  V30 212 C -0.8506 4.8141 1.3030 0
M  V30 213 H -2.2571 4.2895 3.8629 0
M  V30 214 H -2.2537 2.8637 5.8655 0
M  V30 215 H 2.0503 2.7043 5.7529 0
M  V30 216 H 2.0539 4.1171 3.7411 0
M  V30 217 H 1.2302 6.6678 3.2580 0
M  V30 218 H 1.2340 8.0807 1.2463 0
M  V30 219 H -1.4370 5.3205 -0.7055 0
M  V30 220 H -1.4334 3.8947 1.2971 0
M  V30 221 C -1.6934 -4.8795 -2.1659 0
M  V30 222 C -3.0919 -4.8805 -2.1634 0
M  V30 223 C -3.7840 -4.7104 -3.3590 0
M  V30 224 C -3.0918 -4.5404 -4.5546 0
M  V30 225 C -1.6935 -4.5413 -4.5522 0
M  V30 226 C -0.9700 -4.7104 -3.3590 0
M  V30 227 C 0.5021 -4.7104 -3.3591 0
M  V30 228 C 1.2256 -5.5772 -4.1963 0
M  V30 229 C 2.6240 -5.5795 -4.1977 0
M  V30 230 C 3.3161 -4.7104 -3.3590 0
M  V30 231 C 2.6240 -3.8414 -2.5205 0
M  V30 232 C 1.2256 -3.8437 -2.5218 0
M  V30 233 H -1.1674 -5.0252 -1.2240 0
M  V30 234 H -3.6257 -5.0169 -1.2267 0
M  V30 235 H -3.6258 -4.4039 -5.4912 0
M  V30 236 H -1.1675 -4.3956 -5.4940 0
M  V30 237 H 0.6996 -6.2710 -4.8497 0
M  V30 238 H 3.1579 -6.2627 -4.8527 0
M  V30 239 H 3.1579 -3.1582 -1.8655 0
M  V30 240 H 0.6996 -3.1499 -1.8684 0
M  V30 241 C -5.5978 1.0817 -2.3298 0
M  V30 242 C -6.2979 -0.1290 -2.3273 0
M  V30 243 C -6.0514 -1.0704 -3.3224 0
M  V30 244 C -5.1128 -0.8131 -4.3175 0
M  V30 245 C -4.4144 0.3984 -4.3151 0
M  V30 246 C -4.6444 1.3666 -3.3224 0
M  V30 247 C -3.9083 2.6414 -3.3225 0
M  V30 248 C -2.5032 2.6656 -3.3519 0
M  V30 249 C -1.8017 3.8753 -3.3514 0
M  V30 250 C -2.5013 5.0784 -3.3224 0
M  V30 251 C -3.8929 5.0827 -3.2935 0
M  V30 252 C -4.5899 3.8704 -3.2929 0
M  V30 253 H -5.7941 1.8024 -1.5379 0
M  V30 254 H -7.0270 -0.3244 -1.5455 0
M  V30 255 H -4.9176 -1.5424 -5.0993 0
M  V30 256 H -3.6921 0.5887 -5.1070 0
M  V30 257 H -1.9410 1.7336 -3.3632 0
M  V30 258 H -0.7153 3.8646 -3.3710 0
M  V30 259 H -4.4455 6.0182 -3.2740 0
M  V30 260 H -5.6782 3.8913 -3.2817 0
M  V30 261 C 4.4334 0.9422 -3.1977 0
M  V30 262 C 5.1318 -0.2694 -3.1953 0
M  V30 263 C 6.1020 -0.5084 -4.1643 0
M  V30 264 C 6.3802 0.4514 -5.1332 0
M  V30 265 C 5.6801 1.6619 -5.1308 0
M  V30 266 C 4.6950 1.9286 -4.1643 0
M  V30 267 C 3.9590 3.2035 -4.1643 0
M  V30 268 C 4.6408 4.4325 -4.1489 0
M  V30 269 C 3.9439 5.6449 -4.1483 0
M  V30 270 C 2.5520 5.6404 -4.1643 0
M  V30 271 C 1.8523 4.4373 -4.1803 0
M  V30 272 C 2.5537 3.2275 -4.1796 0
M  V30 273 H 3.6859 1.1180 -2.4262 0
M  V30 274 H 4.9116 -1.0129 -2.4339 0
M  V30 275 H 7.1341 0.2701 -5.8946 0
M  V30 276 H 5.9016 2.3971 -5.9024 0
M  V30 277 H 5.7289 4.4533 -4.1247 0
M  V30 278 H 4.4965 6.5804 -4.1327 0
M  V30 279 H 0.7658 4.4265 -4.1960 0
M  V30 280 H 1.9916 2.2956 -4.2038 0
M  V30 END ATOM
M  V30 BEGIN BOND
M  V30 1 2 2 3
M  V30 2 1 3 4
M  V30 3 2 4 5
M  V30 4 1 5 6
M  V30 5 2 6 7
M  V30 6 1 6 8
M  V30 7 2 8 9
M  V30 8 1 7 2
M  V30 9 1 2 10
M  V30 10 1 3 11
M  V30 11 1 4 12
M  V30 12 1 7 13
M  V30 13 1 8 14
M  V30 14 2 15 16
M  V30 15 1 16 17
M  V30 16 2 17 18
M  V30 17 1 18 19
M  V30 18 2 19 20
M  V30 19 1 19 21
M  V30 20 2 21 22
M  V30 21 1 20 15
M  V30 22 1 15 23
M  V30 23 1 16 24
M  V30 24 1 17 25
M  V30 25 1 20 26
M  V30 26 1 21 27
M  V30 27 2 28 29
M  V30 28 1 29 30
M  V30 29 2 30 31
M  V30 30 1 31 32
M  V30 31 2 32 33
M  V30 32 1 32 34
M  V30 33 2 34 35
M  V30 34 1 33 28
M  V30 35 1 28 36
M  V30 36 1 29 37
M  V30 37 1 30 38
M  V30 38 1 33 39
M  V30 39 1 34 40
M  V30 40 9 9 1
M  V30 41 9 5 1
M  V30 42 9 35 1
M  V30 43 9 31 1
M  V30 44 9 22 1
M  V30 45 9 18 1
M  V30 46 2 42 43
M  V30 47 1 43 44
M  V30 48 2 44 45
M  V30 49 1 45 46
M  V30 50 2 46 47
M  V30 51 1 46 48
M  V30 52 2 48 49
M  V30 53 1 47 42
M  V30 54 1 42 50
M  V30 55 1 43 51
M  V30 56 1 44 52
M  V30 57 1 47 53
M  V30 58 1 48 54
M  V30 59 2 55 56
M  V30 60 1 56 57
M  V30 61 2 57 58
M  V30 62 1 58 59
M  V30 63 2 59 60
M  V30 64 1 59 61
M  V30 65 2 61 62
M  V30 66 1 60 55
M  V30 67 1 55 63
M  V30 68 1 56 64
M  V30 69 1 57 65
M  V30 70 1 60 66
M  V30 71 1 61 67
M  V30 72 2 68 69
M  V30 73 1 69 70
M  V30 74 2 70 71
M  V30 75 1 71 72
M  V30 76 2 72 73
M  V30 77 1 72 74
M  V30 78 2 74 75
M  V30 79 1 73 68
M  V30 80 1 68 76
M  V30 81 1 69 77
M  V30 82 1 70 78
M  V30 83 1 73 79
M  V30 84 1 74 80
M  V30 85 9 49 41
M  V30 86 9 45 41
M  V30 87 9 75 41
M  V30 88 9 71 41
M  V30 89 9 62 41
M  V30 90 9 58 41
M  V30 91 2 82 83
M  V30 92 1 83 84
M  V30 93 2 84 85
M  V30 94 1 85 86
M  V30 95 2 86 87
M  V30 96 1 86 88
M  V30 97 2 88 89
M  V30 98 1 87 82
M  V30 99 1 82 90
M  V30 100 1 83 91
M  V30 101 1 84 92
M  V30 102 1 87 93
M  V30 103 1 88 94
M  V30 104 2 95 96
M  V30 105 1 96 97
M  V30 106 2 97 98
M  V30 107 1 98 99
M  V30 108 2 99 100
M  V30 109 1 99 101
M  V30 110 2 101 102
M  V30 111 1 100 95
M  V30 112 1 95 103
M  V30 113 1 96 104
M  V30 114 1 97 105
M  V30 115 1 100 106
M  V30 116 1 101 107
M  V30 117 2 108 109
M  V30 118 1 109 110
M  V30 119 2 110 111
M  V30 120 1 111 112
M  V30 121 2 112 113
M  V30 122 1 112 114
M  V30 123 2 114 115
M  V30 124 1 113 108
M  V30 125 1 108 116
M  V30 126 1 109 117
M  V30 127 1 110 118
M  V30 128 1 113 119
M  V30 129 1 114 120
M  V30 130 9 89 81
M  V30 131 9 85 81
M  V30 132 9 115 81
M  V30 133 9 111 81
M  V30 134 9 102 81
M  V30 135 9 98 81
M  V30 136 2 122 123
M  V30 137 1 123 124
M  V30 138 2 124 125
M  V30 139 1 125 126
M  V30 140 2 126 127
M  V30 141 1 126 128
M  V30 142 2 128 129
M  V30 143 1 127 122
M  V30 144 1 122 130
M  V30 145 1 123 131
M  V30 146 1 124 132
M  V30 147 1 127 133
M  V30 148 1 128 134
M  V30 149 2 135 136
M  V30 150 1 136 137
M  V30 151 2 137 138
M  V30 152 1 138 139
M  V30 153 2 139 140
M  V30 154 1 139 141
M  V30 155 2 141 142
M  V30 156 1 140 135
M  V30 157 1 135 143
M  V30 158 1 136 144
M  V30 159 1 137 145
M  V30 160 1 140 146
M  V30 161 1 141 147
M  V30 162 2 148 149
M  V30 163 1 149 150
M  V30 164 2 150 151
M  V30 165 1 151 152
M  V30 166 2 152 153
M  V30 167 1 152 154
M  V30 168 2 154 155
M  V30 169 1 153 148
M  V30 170 1 148 156
M  V30 171 1 149 157
M  V30 172 1 150 158
M  V30 173 1 153 159
M  V30 174 1 154 160
M  V30 175 9 129 121
M  V30 176 9 125 121
M  V30 177 9 155 121
M  V30 178 9 151 121
M  V30 179 9 142 121
M  V30 180 9 138 121
M  V30 181 2 161 162
M  V30 182 1 162 163
M  V30 183 2 163 164
M  V30 184 1 164 165
M  V30 185 2 165 166
M  V30 186 1 166 167
M  V30 187 2 167 168
M  V30 188 1 168 169
M  V30 189 2 169 170
M  V30 190 1 170 171
M  V30 191 2 171 172
M  V30 192 1 166 161
M  V30 193 1 172 167
M  V30 194 1 161 173
M  V30 195 1 162 174
M  V30 196 1 164 175
M  V30 197 1 165 176
M  V30 198 1 168 177
M  V30 199 1 169 178
M  V30 200 1 171 179
M  V30 201 1 172 180
M  V30 202 2 181 182
M  V30 203 1 182 183
M  V30 204 2 183 184
M  V30 205 1 184 185
M  V30 206 2 185 186
M  V30 207 1 186 187
M  V30 208 2 187 188
M  V30 209 1 188 189
M  V30 210 2 189 190
M  V30 211 1 190 191
M  V30 212 2 191 192
M  V30 213 1 186 181
M  V30 214 1 192 187
M  V30 215 1 181 193
M  V30 216 1 182 194
M  V30 217 1 184 195
M  V30 218 1 185 196
M  V30 219 1 188 197
M  V30 220 1 189 198
M  V30 221 1 191 199
M  V30 222 1 192 200
M  V30 223 2 201 202
M  V30 224 1 202 203
M  V30 225 2 203 204
M  V30 226 1 204 205
M  V30 227 2 205 206
M  V30 228 1 206 207
M  V30 229 2 207 208
M  V30 230 1 208 209
M  V30 231 2 209 210
M  V30 232 1 210 211
M  V30 233 2 211 212
M  V30 234 1 206 201
M  V30 235 1 212 207
M  V30 236 1 201 213
M  V30 237 1 202 214
M  V30 238 1 204 215
M  V30 239 1 205 216
M  V30 240 1 208 217
M  V30 241 1 209 218
M  V30 242 1 211 219
M  V30 243 1 212 220
M  V30 244 2 221 222
M  V30 245 1 222 223
M  V30 246 2 223 224
M  V30 247 1 224 225
M  V30 248 2 225 226
M  V30 249 1 226 227
M  V30 250 2 227 228
M  V30 251 1 228 229
M  V30 252 2 229 230
M  V30 253 1 230 231
M  V30 254 2 231 232
M  V30 255 1 226 221
M  V30 256 1 232 227
M  V30 257 1 221 233
M  V30 258 1 222 234
M  V30 259 1 224 235
M  V30 260 1 225 236
M  V30 261 1 228 237
M  V30 262 1 229 238
M  V30 263 1 231 239
M  V30 264 1 232 240
M  V30 265 2 241 242
M  V30 266 1 242 243
M  V30 267 2 243 244
M  V30 268 1 244 245
M  V30 269 2 245 246
M  V30 270 1 246 247
M  V30 271 2 247 248
M  V30 272 1 248 249
M  V30 273 2 249 250
M  V30 274 1 250 251
M  V30 275 2 251 252
M  V30 276 1 246 241
M  V30 277 1 252 247
M  V30 278 1 241 253
M  V30 279 1 242 254
M  V30 280 1 244 255
M  V30 281 1 245 256
M  V30 282 1 248 257
M  V30 283 1 249 258
M  V30 284 1 251 259
M  V30 285 1 252 260
M  V30 286 2 261 262
M  V30 287 1 262 263
M  V30 288 2 263 264
M  V30 289 1 264 265
M  V30 290 2 265 266
M  V30 291 1 266 267
M  V30 292 2 267 268
M  V30 293 1 268 269
M  V30 294 2 269 270
M  V30 295 1 270 271
M  V30 296 2 271 272
M  V30 297 1 266 261
M  V30 298 1 272 267
M  V30 299 1 261 273
M  V30 300 1 262 274
M  V30 301 1 264 275
M  V30 302 1 265 276
M  V30 303 1 268 277
M  V30 304 1 269 278
M  V30 305 1 271 279
M  V30 306 1 272 280
M  V30 307 1 9 163
M  V30 308 1 22 183
M  V30 309 1 35 203
M  V30 310 1 49 170
M  V30 311 1 75 223
M  V30 312 1 62 243
M  V30 313 1 89 190
M  V30 314 1 102 230
M  V30 315 1 115 263
M  V30 316 1 129 210
M  V30 317 1 155 250
M  V30 318 1 142 270
M  V30 END BOND
M  V30 END CTAB
M  END

$$$$
