
     RDKit          3D

  0  0  0  0  0  0  0  0  0  0999 V3000
M  V30 BEGIN CTAB
M  V30 COUNTS 24 24 0 0 0
M  V30 BEGIN ATOM
M  V30 1 Br 4.3642 -1.6251 0.3615 0
M  V30 2 C 2.6549 -1.2119 -0.3709 0
M  V30 3 N 1.6861 -1.0412 0.4555 0
M  V30 4 C 0.4048 -0.7066 -0.1974 0
M  V30 5 C -0.6964 -1.5297 0.4812 0
M  V30 6 C -2.0792 -1.1658 -0.0528 0
M  V30 7 C -2.3549 0.3301 0.0688 0
M  V30 8 C -1.2586 1.1613 -0.5922 0
M  V30 9 C 0.1275 0.8069 -0.0411 0
M  V30 10 N 1.1287 1.5718 -0.8110 0
M  V30 11 C 2.0459 2.0978 -0.0813 0
M  V30 12 Br 3.4072 3.0898 -0.9711 0
M  V30 13 H 2.5723 -1.1264 -1.4678 0
M  V30 14 H 0.4160 -0.9664 -1.2659 0
M  V30 15 H -0.5118 -2.5994 0.3240 0
M  V30 16 H -0.6707 -1.3673 1.5668 0
M  V30 17 H -2.8450 -1.7271 0.4942 0
M  V30 18 H -2.1539 -1.4659 -1.1052 0
M  V30 19 H -3.3222 0.5647 -0.3893 0
M  V30 20 H -2.4292 0.6021 1.1289 0
M  V30 21 H -1.2831 0.9991 -1.6778 0
M  V30 22 H -1.4604 2.2276 -0.4341 0
M  V30 23 H 0.1491 1.0730 1.0257 0
M  V30 24 H 2.1088 2.0087 1.0167 0
M  V30 END ATOM
M  V30 BEGIN BOND
M  V30 1 1 1 2
M  V30 2 2 2 3
M  V30 3 1 3 4
M  V30 4 1 4 5
M  V30 5 1 5 6
M  V30 6 1 6 7
M  V30 7 1 7 8
M  V30 8 1 8 9
M  V30 9 1 9 10
M  V30 10 2 10 11
M  V30 11 1 11 12
M  V30 12 1 9 4
M  V30 13 1 2 13
M  V30 14 1 4 14
M  V30 15 1 5 15
M  V30 16 1 5 16
M  V30 17 1 6 17
M  V30 18 1 6 18
M  V30 19 1 7 19
M  V30 20 1 7 20
M  V30 21 1 8 21
M  V30 22 1 8 22
M  V30 23 1 9 23
M  V30 24 1 11 24
M  V30 END BOND
M  V30 END CTAB
M  END

$$$$
